francia
france
parigi
paris
partitocomunistafrancese
pcf
particommunistefrancais
oscarniemeyer
niemeyer
edificio
building
vetro
acciaio
cemento
steel
glass
cement
geometria
geometry
linee
curve
lines
curves
isco72
francescopallante
panasonic
fz18
dmcfz18
explore
frontpage
bestminimalshot
linescurves
geometriegeometry
architecture
architettura
goldenart
goldenratio
phvalue
distillery
saariysqualitypictures
